Check Keywords Warn

Header
  Mesh DB "." "wires2d"
End

Simulation
  Coordinate System = Cartesian 2D
  Simulation Type = Steady State
  Steady State Max Iterations = 1
  Output File = "elstatics.result"
  Post File = "elstatics.ep"
End

Constants
  Permittivity Of Vacuum = 8.8542e-12
End


Body 1
  Target Bodies(1) = 13
  Equation = 1
  Material = 1
End


Equation 1
  Active Solvers(2) = 1 2
End


Material 1
  Relative Permittivity = 1
End


Solver 1
  Equation = Electrostatics
  Procedure = "StatElecSolve" "StatElecSolver"

  Variable = Potential
  Variable DOFs = 1

  Calculate Electric Field = True
  Calculate Electric Flux = False

  Linear System Solver = Iterative
  Linear System Iterative Method = CG
  Linear System Max Iterations = 500
  Linear System Convergence Tolerance = 1.0e-8
  Linear System Preconditioning = ILU1
End


Solver 2
  Equation = Electric Force
  Procedure = "ElectricForce" "StatElecForce"
End


Boundary Condition 1
  Target Boundaries = 10
  Potential = 650
  Calculate Electric Force = True
End


Boundary Condition 2
  Target Boundaries = 20
  Potential = 0
End
